/clear
/prep7
! Generated from PEER SPD public data
! Specimen: Thomsen and Wallace 1994, D3
! Geometry from PEER rectangular properties table

*set,B_mm,152.4
*set,H_mm,152.4
*set,L_mm,596.9
*set,fc_mpa,71.2
*set,fy_mpa,414
*set,E_scale,1.0
*set,axial_kN,331
*set,cover_mm,44.5
*set,npts,787

! Review before production use:
! 1. This is still an equivalent member model, not a full RC fiber/solid model.
! 2. fc_mpa controls equivalent stiffness and fy_mpa controls the bilinear yield threshold.
! 3. Confirm reinforcement layout and section definition against the source paper before publication use.

et,1,beam188
*set,ex_eff,4.7*sqrt(fc_mpa)*E_scale
*set,fy_eff,fy_mpa/1000
*set,etan_eff,0.02*ex_eff
mp,ex,1,ex_eff
mp,prxy,1,0.2
tb,biso,1,,,1
tbdata,1,fy_eff,etan_eff

sectype,1,beam,rect
secdata,B_mm,H_mm

k,1,0,0,0
k,2,L_mm,0,0
l,1,2
lesize,all,50
lmesh,all

d,1,all,0

/solu
antype,static
nlgeom,on
autots,on
nsubst,10,100,1

! Apply constant axial compression placeholder at node 2
f,2,fx,-axial_kN

*dim,disp_hist,array,npts
*dim,load_hist,array,npts
disp_hist(1)=-0.12192
load_hist(1)=-0.36653341
disp_hist(2)=-0.17272000000000001
load_hist(2)=-1.696996312
disp_hist(3)=-0.26669999999999999
load_hist(3)=-4.4117455879999996
disp_hist(4)=-0.38353999999999999
load_hist(4)=-6.6380801979999999
disp_hist(5)=-0.44196000000000002
load_hist(5)=-8.5116708840000008
disp_hist(6)=-0.55371999999999999
load_hist(6)=-11.28068846
disp_hist(7)=-0.65786
load_hist(7)=-12.01375528
disp_hist(8)=-0.52324000000000004
load_hist(8)=-8.8644148089999995
disp_hist(9)=-0.43180000000000002
load_hist(9)=-6.7741957609999996
disp_hist(10)=-0.38862000000000002
load_hist(10)=-4.3032089950000003
disp_hist(11)=-0.25653999999999999
load_hist(11)=-1.316673416
disp_hist(12)=-0.16764000000000001
load_hist(12)=1.2081368240000001
disp_hist(13)=-0.091439999999999994
load_hist(13)=3.3530689900000001
disp_hist(14)=-0.035560000000000001
load_hist(14)=5.7693426370000003
disp_hist(15)=0.10414
load_hist(15)=8.212750432
disp_hist(16)=0.19303999999999999
load_hist(16)=9.9506703769999998
disp_hist(17)=0.26923999999999998
load_hist(17)=11.14501772
disp_hist(18)=0.14732000000000001
load_hist(18)=8.5659391800000009
disp_hist(19)=0.11176
load_hist(19)=6.3396045689999996
disp_hist(20)=0.01524
load_hist(20)=3.3802031380000002
! ... 1534 like lines cut

! Example displacement-controlled replay of the public cyclic history
*do,i,1,npts
  d,2,uy,disp_hist(i)
  solve
*enddo
finish


